50
hexadecane
C      9.37300   -0.35430   -0.00000
C      8.11560    0.51740    0.00000
C      6.87460   -0.37760   -0.00000
C      5.61720    0.49410    0.00000
C      4.37630   -0.40090   -0.00000
C      3.11880    0.47080    0.00000
C      1.87790   -0.42420   -0.00000
C      0.62050    0.44750    0.00000
C     -0.62050   -0.44750    0.00000
C     -1.87790    0.42420   -0.00000
C     -3.11880   -0.47080    0.00000
C     -4.37630    0.40090   -0.00000
C     -5.61720   -0.49410    0.00000
C     -6.87460    0.37760   -0.00000
C     -8.11560   -0.51740    0.00000
C     -9.37300    0.35430   -0.00000
H      9.37890   -0.98350    0.89000
H      9.37890   -0.98350   -0.89000
H     10.25710    0.28330    0.00000
H      8.10970    1.14670    0.89000
H      8.10970    1.14670   -0.89000
H      6.88050   -1.00690   -0.89000
H      6.88050   -1.00690    0.89000
H      5.61130    1.12340    0.89000
H      5.61130    1.12340   -0.89000
H      4.38210   -1.03020   -0.89000
H      4.38210   -1.03020    0.89000
H      3.11300    1.10010    0.89000
H      3.11300    1.10010   -0.89000
H      1.88380   -1.05350   -0.89000
H      1.88380   -1.05350    0.89000
H      0.61460    1.07680    0.89000
H      0.61460    1.07680   -0.89000
H     -0.61460   -1.07680   -0.89000
H     -0.61460   -1.07680    0.89000
H     -1.88380    1.05350    0.89000
H     -1.88380    1.05350   -0.89000
H     -3.11300   -1.10010   -0.89000
H     -3.11300   -1.10010    0.89000
H     -4.38210    1.03020    0.89000
H     -4.38210    1.03020   -0.89000
H     -5.61130   -1.12340   -0.89000
H     -5.61130   -1.12340    0.89000
H     -6.88050    1.00690    0.89000
H     -6.88050    1.00690   -0.89000
H     -8.10970   -1.14670   -0.89000
H     -8.10970   -1.14670    0.89000
H     -9.37890    0.98350    0.89000
H     -9.37890    0.98350   -0.89000
H    -10.25710   -0.28330    0.00000
